<?xml version="1.0" encoding="UTF-8"?>
<!DOCTYPE network SYSTEM "http://www.matsim.org/files/dtd/network_v1.dtd">
<network>
  <nodes>
    <node id="n_0_0" x="460000.0" y="5740000.0" />
    <node id="n_1_0" x="463000.0" y="5740000.0" />
    <node id="n_2_0" x="466000.0" y="5740000.0" />
    <node id="n_3_0" x="469000.0" y="5740000.0" />
    <node id="n_4_0" x="472000.0" y="5740000.0" />
    <node id="n_5_0" x="475000.0" y="5740000.0" />
    <node id="n_0_1" x="460000.0" y="5743000.0" />
    <node id="n_1_1" x="463000.0" y="5743000.0" />
    <node id="n_2_1" x="466000.0" y="5743000.0" />
    <node id="n_3_1" x="469000.0" y="5743000.0" />
    <node id="n_4_1" x="472000.0" y="5743000.0" />
    <node id="n_5_1" x="475000.0" y="5743000.0" />
    <node id="n_0_2" x="460000.0" y="5746000.0" />
    <node id="n_1_2" x="463000.0" y="5746000.0" />
    <node id="n_2_2" x="466000.0" y="5746000.0" />
    <node id="n_3_2" x="469000.0" y="5746000.0" />
    <node id="n_4_2" x="472000.0" y="5746000.0" />
    <node id="n_5_2" x="475000.0" y="5746000.0" />
    <node id="n_0_3" x="460000.0" y="5749000.0" />
    <node id="n_1_3" x="463000.0" y="5749000.0" />
    <node id="n_2_3" x="466000.0" y="5749000.0" />
    <node id="n_3_3" x="469000.0" y="5749000.0" />
    <node id="n_4_3" x="472000.0" y="5749000.0" />
    <node id="n_5_3" x="475000.0" y="5749000.0" />
    <node id="n_0_4" x="460000.0" y="5752000.0" />
    <node id="n_1_4" x="463000.0" y="5752000.0" />
    <node id="n_2_4" x="466000.0" y="5752000.0" />
    <node id="n_3_4" x="469000.0" y="5752000.0" />
    <node id="n_4_4" x="472000.0" y="5752000.0" />
    <node id="n_5_4" x="475000.0" y="5752000.0" />
  </nodes>
  <links>
    <link id="1" from="n_0_0" to="n_1_0" length="3000.0" freespeed="22.2" capacity="2000.0" permlanes="1.0" modes="car,bus,tram,train" />
    <link id="2" from="n_1_0" to="n_0_0" length="3000.0" freespeed="22.2" capacity="2000.0" permlanes="1.0" modes="car,bus,tram,train" />
    <link id="3" from="n_0_0" to="n_0_1" length="3000.0" freespeed="22.2" capacity="2000.0" permlanes="1.0" modes="car,bus,tram,train" />
    <link id="4" from="n_0_1" to="n_0_0" length="3000.0" freespeed="22.2" capacity="2000.0" permlanes="1.0" modes="car,bus,tram,train" />
    <link id="5" from="n_1_0" to="n_2_0" length="3000.0" freespeed="22.2" capacity="2000.0" permlanes="1.0" modes="car,bus,tram,train" />
    <link id="6" from="n_2_0" to="n_1_0" length="3000.0" freespeed="22.2" capacity="2000.0" permlanes="1.0" modes="car,bus,tram,train" />
    <link id="7" from="n_1_0" to="n_1_1" length="3000.0" freespeed="22.2" capacity="2000.0" permlanes="1.0" modes="car,bus,tram,train" />
    <link id="8" from="n_1_1" to="n_1_0" length="3000.0" freespeed="22.2" capacity="2000.0" permlanes="1.0" modes="car,bus,tram,train" />
    <link id="9" from="n_2_0" to="n_3_0" length="3000.0" freespeed="22.2" capacity="2000.0" permlanes="1.0" modes="car,bus,tram,train" />
    <link id="10" from="n_3_0" to="n_2_0" length="3000.0" freespeed="22.2" capacity="2000.0" permlanes="1.0" modes="car,bus,tram,train" />
    <link id="11" from="n_2_0" to="n_2_1" length="3000.0" freespeed="22.2" capacity="2000.0" permlanes="1.0" modes="car,bus,tram,train" />
    <link id="12" from="n_2_1" to="n_2_0" length="3000.0" freespeed="22.2" capacity="2000.0" permlanes="1.0" modes="car,bus,tram,train" />
    <link id="13" from="n_3_0" to="n_4_0" length="3000.0" freespeed="22.2" capacity="2000.0" permlanes="1.0" modes="car,bus,tram,train" />
    <link id="14" from="n_4_0" to="n_3_0" length="3000.0" freespeed="22.2" capacity="2000.0" permlanes="1.0" modes="car,bus,tram,train" />
    <link id="15" from="n_3_0" to="n_3_1" length="3000.0" freespeed="22.2" capacity="2000.0" permlanes="1.0" modes="car,bus,tram,train" />
    <link id="16" from="n_3_1" to="n_3_0" length="3000.0" freespeed="22.2" capacity="2000.0" permlanes="1.0" modes="car,bus,tram,train" />
    <link id="17" from="n_4_0" to="n_5_0" length="3000.0" freespeed="22.2" capacity="2000.0" permlanes="1.0" modes="car,bus,tram,train" />
    <link id="18" from="n_5_0" to="n_4_0" length="3000.0" freespeed="22.2" capacity="2000.0" permlanes="1.0" modes="car,bus,tram,train" />
    <link id="19" from="n_4_0" to="n_4_1" length="3000.0" freespeed="22.2" capacity="2000.0" permlanes="1.0" modes="car,bus,tram,train" />
    <link id="20" from="n_4_1" to="n_4_0" length="3000.0" freespeed="22.2" capacity="2000.0" permlanes="1.0" modes="car,bus,tram,train" />
    <link id="21" from="n_5_0" to="n_5_1" length="3000.0" freespeed="22.2" capacity="2000.0" permlanes="1.0" modes="car,bus,tram,train" />
    <link id="22" from="n_5_1" to="n_5_0" length="3000.0" freespeed="22.2" capacity="2000.0" permlanes="1.0" modes="car,bus,tram,train" />
    <link id="23" from="n_0_1" to="n_1_1" length="3000.0" freespeed="22.2" capacity="2000.0" permlanes="1.0" modes="car,bus,tram,train" />
    <link id="24" from="n_1_1" to="n_0_1" length="3000.0" freespeed="22.2" capacity="2000.0" permlanes="1.0" modes="car,bus,tram,train" />
    <link id="25" from="n_0_1" to="n_0_2" length="3000.0" freespeed="22.2" capacity="2000.0" permlanes="1.0" modes="car,bus,tram,train" />
    <link id="26" from="n_0_2" to="n_0_1" length="3000.0" freespeed="22.2" capacity="2000.0" permlanes="1.0" modes="car,bus,tram,train" />
    <link id="27" from="n_1_1" to="n_2_1" length="3000.0" freespeed="22.2" capacity="2000.0" permlanes="1.0" modes="car,bus,tram,train" />
    <link id="28" from="n_2_1" to="n_1_1" length="3000.0" freespeed="22.2" capacity="2000.0" permlanes="1.0" modes="car,bus,tram,train" />
    <link id="29" from="n_1_1" to="n_1_2" length="3000.0" freespeed="22.2" capacity="2000.0" permlanes="1.0" modes="car,bus,tram,train" />
    <link id="30" from="n_1_2" to="n_1_1" length="3000.0" freespeed="22.2" capacity="2000.0" permlanes="1.0" modes="car,bus,tram,train" />
    <link id="31" from="n_2_1" to="n_3_1" length="3000.0" freespeed="22.2" capacity="2000.0" permlanes="1.0" modes="car,bus,tram,train" />
    <link id="32" from="n_3_1" to="n_2_1" length="3000.0" freespeed="22.2" capacity="2000.0" permlanes="1.0" modes="car,bus,tram,train" />
    <link id="33" from="n_2_1" to="n_2_2" length="3000.0" freespeed="22.2" capacity="2000.0" permlanes="1.0" modes="car,bus,tram,train" />
    <link id="34" from="n_2_2" to="n_2_1" length="3000.0" freespeed="22.2" capacity="2000.0" permlanes="1.0" modes="car,bus,tram,train" />
    <link id="35" from="n_3_1" to="n_4_1" length="3000.0" freespeed="22.2" capacity="2000.0" permlanes="1.0" modes="car,bus,tram,train" />
    <link id="36" from="n_4_1" to="n_3_1" length="3000.0" freespeed="22.2" capacity="2000.0" permlanes="1.0" modes="car,bus,tram,train" />
    <link id="37" from="n_3_1" to="n_3_2" length="3000.0" freespeed="22.2" capacity="2000.0" permlanes="1.0" modes="car,bus,tram,train" />
    <link id="38" from="n_3_2" to="n_3_1" length="3000.0" freespeed="22.2" capacity="2000.0" permlanes="1.0" modes="car,bus,tram,train" />
    <link id="39" from="n_4_1" to="n_5_1" length="3000.0" freespeed="22.2" capacity="2000.0" permlanes="1.0" modes="car,bus,tram,train" />
    <link id="40" from="n_5_1" to="n_4_1" length="3000.0" freespeed="22.2" capacity="2000.0" permlanes="1.0" modes="car,bus,tram,train" />
    <link id="41" from="n_4_1" to="n_4_2" length="3000.0" freespeed="22.2" capacity="2000.0" permlanes="1.0" modes="car,bus,tram,train" />
    <link id="42" from="n_4_2" to="n_4_1" length="3000.0" freespeed="22.2" capacity="2000.0" permlanes="1.0" modes="car,bus,tram,train" />
    <link id="43" from="n_5_1" to="n_5_2" length="3000.0" freespeed="22.2" capacity="2000.0" permlanes="1.0" modes="car,bus,tram,train" />
    <link id="44" from="n_5_2" to="n_5_1" length="3000.0" freespeed="22.2" capacity="2000.0" permlanes="1.0" modes="car,bus,tram,train" />
    <link id="45" from="n_0_2" to="n_1_2" length="3000.0" freespeed="22.2" capacity="2000.0" permlanes="1.0" modes="car,bus,tram,train" />
    <link id="46" from="n_1_2" to="n_0_2" length="3000.0" freespeed="22.2" capacity="2000.0" permlanes="1.0" modes="car,bus,tram,train" />
    <link id="47" from="n_0_2" to="n_0_3" length="3000.0" freespeed="22.2" capacity="2000.0" permlanes="1.0" modes="car,bus,tram,train" />
    <link id="48" from="n_0_3" to="n_0_2" length="3000.0" freespeed="22.2" capacity="2000.0" permlanes="1.0" modes="car,bus,tram,train" />
    <link id="49" from="n_1_2" to="n_2_2" length="3000.0" freespeed="22.2" capacity="2000.0" permlanes="1.0" modes="car,bus,tram,train" />
    <link id="50" from="n_2_2" to="n_1_2" length="3000.0" freespeed="22.2" capacity="2000.0" permlanes="1.0" modes="car,bus,tram,train" />
    <link id="51" from="n_1_2" to="n_1_3" length="3000.0" freespeed="22.2" capacity="2000.0" permlanes="1.0" modes="car,bus,tram,train" />
    <link id="52" from="n_1_3" to="n_1_2" length="3000.0" freespeed="22.2" capacity="2000.0" permlanes="1.0" modes="car,bus,tram,train" />
    <link id="53" from="n_2_2" to="n_3_2" length="3000.0" freespeed="22.2" capacity="2000.0" permlanes="1.0" modes="car,bus,tram,train" />
    <link id="54" from="n_3_2" to="n_2_2" length="3000.0" freespeed="22.2" capacity="2000.0" permlanes="1.0" modes="car,bus,tram,train" />
    <link id="55" from="n_2_2" to="n_2_3" length="3000.0" freespeed="22.2" capacity="2000.0" permlanes="1.0" modes="car,bus,tram,train" />
    <link id="56" from="n_2_3" to="n_2_2" length="3000.0" freespeed="22.2" capacity="2000.0" permlanes="1.0" modes="car,bus,tram,train" />
    <link id="57" from="n_3_2" to="n_4_2" length="3000.0" freespeed="22.2" capacity="2000.0" permlanes="1.0" modes="car,bus,tram,train" />
    <link id="58" from="n_4_2" to="n_3_2" length="3000.0" freespeed="22.2" capacity="2000.0" permlanes="1.0" modes="car,bus,tram,train" />
    <link id="59" from="n_3_2" to="n_3_3" length="3000.0" freespeed="22.2" capacity="2000.0" permlanes="1.0" modes="car,bus,tram,train" />
    <link id="60" from="n_3_3" to="n_3_2" length="3000.0" freespeed="22.2" capacity="2000.0" permlanes="1.0" modes="car,bus,tram,train" />
    <link id="61" from="n_4_2" to="n_5_2" length="3000.0" freespeed="22.2" capacity="2000.0" permlanes="1.0" modes="car,bus,tram,train" />
    <link id="62" from="n_5_2" to="n_4_2" length="3000.0" freespeed="22.2" capacity="2000.0" permlanes="1.0" modes="car,bus,tram,train" />
    <link id="63" from="n_4_2" to="n_4_3" length="3000.0" freespeed="22.2" capacity="2000.0" permlanes="1.0" modes="car,bus,tram,train" />
    <link id="64" from="n_4_3" to="n_4_2" length="3000.0" freespeed="22.2" capacity="2000.0" permlanes="1.0" modes="car,bus,tram,train" />
    <link id="65" from="n_5_2" to="n_5_3" length="3000.0" freespeed="22.2" capacity="2000.0" permlanes="1.0" modes="car,bus,tram,train" />
    <link id="66" from="n_5_3" to="n_5_2" length="3000.0" freespeed="22.2" capacity="2000.0" permlanes="1.0" modes="car,bus,tram,train" />
    <link id="67" from="n_0_3" to="n_1_3" length="3000.0" freespeed="22.2" capacity="2000.0" permlanes="1.0" modes="car,bus,tram,train" />
    <link id="68" from="n_1_3" to="n_0_3" length="3000.0" freespeed="22.2" capacity="2000.0" permlanes="1.0" modes="car,bus,tram,train" />
    <link id="69" from="n_0_3" to="n_0_4" length="3000.0" freespeed="22.2" capacity="2000.0" permlanes="1.0" modes="car,bus,tram,train" />
    <link id="70" from="n_0_4" to="n_0_3" length="3000.0" freespeed="22.2" capacity="2000.0" permlanes="1.0" modes="car,bus,tram,train" />
    <link id="71" from="n_1_3" to="n_2_3" length="3000.0" freespeed="22.2" capacity="2000.0" permlanes="1.0" modes="car,bus,tram,train" />
    <link id="72" from="n_2_3" to="n_1_3" length="3000.0" freespeed="22.2" capacity="2000.0" permlanes="1.0" modes="car,bus,tram,train" />
    <link id="73" from="n_1_3" to="n_1_4" length="3000.0" freespeed="22.2" capacity="2000.0" permlanes="1.0" modes="car,bus,tram,train" />
    <link id="74" from="n_1_4" to="n_1_3" length="3000.0" freespeed="22.2" capacity="2000.0" permlanes="1.0" modes="car,bus,tram,train" />
    <link id="75" from="n_2_3" to="n_3_3" length="3000.0" freespeed="22.2" capacity="2000.0" permlanes="1.0" modes="car,bus,tram,train" />
    <link id="76" from="n_3_3" to="n_2_3" length="3000.0" freespeed="22.2" capacity="2000.0" permlanes="1.0" modes="car,bus,tram,train" />
    <link id="77" from="n_2_3" to="n_2_4" length="3000.0" freespeed="22.2" capacity="2000.0" permlanes="1.0" modes="car,bus,tram,train" />
    <link id="78" from="n_2_4" to="n_2_3" length="3000.0" freespeed="22.2" capacity="2000.0" permlanes="1.0" modes="car,bus,tram,train" />
    <link id="79" from="n_3_3" to="n_4_3" length="3000.0" freespeed="22.2" capacity="2000.0" permlanes="1.0" modes="car,bus,tram,train" />
    <link id="80" from="n_4_3" to="n_3_3" length="3000.0" freespeed="22.2" capacity="2000.0" permlanes="1.0" modes="car,bus,tram,train" />
    <link id="81" from="n_3_3" to="n_3_4" length="3000.0" freespeed="22.2" capacity="2000.0" permlanes="1.0" modes="car,bus,tram,train" />
    <link id="82" from="n_3_4" to="n_3_3" length="3000.0" freespeed="22.2" capacity="2000.0" permlanes="1.0" modes="car,bus,tram,train" />
    <link id="83" from="n_4_3" to="n_5_3" length="3000.0" freespeed="22.2" capacity="2000.0" permlanes="1.0" modes="car,bus,tram,train" />
    <link id="84" from="n_5_3" to="n_4_3" length="3000.0" freespeed="22.2" capacity="2000.0" permlanes="1.0" modes="car,bus,tram,train" />
    <link id="85" from="n_4_3" to="n_4_4" length="3000.0" freespeed="22.2" capacity="2000.0" permlanes="1.0" modes="car,bus,tram,train" />
    <link id="86" from="n_4_4" to="n_4_3" length="3000.0" freespeed="22.2" capacity="2000.0" permlanes="1.0" modes="car,bus,tram,train" />
    <link id="87" from="n_5_3" to="n_5_4" length="3000.0" freespeed="22.2" capacity="2000.0" permlanes="1.0" modes="car,bus,tram,train" />
    <link id="88" from="n_5_4" to="n_5_3" length="3000.0" freespeed="22.2" capacity="2000.0" permlanes="1.0" modes="car,bus,tram,train" />
    <link id="89" from="n_0_4" to="n_1_4" length="3000.0" freespeed="22.2" capacity="2000.0" permlanes="1.0" modes="car,bus,tram,train" />
    <link id="90" from="n_1_4" to="n_0_4" length="3000.0" freespeed="22.2" capacity="2000.0" permlanes="1.0" modes="car,bus,tram,train" />
    <link id="91" from="n_1_4" to="n_2_4" length="3000.0" freespeed="22.2" capacity="2000.0" permlanes="1.0" modes="car,bus,tram,train" />
    <link id="92" from="n_2_4" to="n_1_4" length="3000.0" freespeed="22.2" capacity="2000.0" permlanes="1.0" modes="car,bus,tram,train" />
    <link id="93" from="n_2_4" to="n_3_4" length="3000.0" freespeed="22.2" capacity="2000.0" permlanes="1.0" modes="car,bus,tram,train" />
    <link id="94" from="n_3_4" to="n_2_4" length="3000.0" freespeed="22.2" capacity="2000.0" permlanes="1.0" modes="car,bus,tram,train" />
    <link id="95" from="n_3_4" to="n_4_4" length="3000.0" freespeed="22.2" capacity="2000.0" permlanes="1.0" modes="car,bus,tram,train" />
    <link id="96" from="n_4_4" to="n_3_4" length="3000.0" freespeed="22.2" capacity="2000.0" permlanes="1.0" modes="car,bus,tram,train" />
    <link id="97" from="n_4_4" to="n_5_4" length="3000.0" freespeed="22.2" capacity="2000.0" permlanes="1.0" modes="car,bus,tram,train" />
    <link id="98" from="n_5_4" to="n_4_4" length="3000.0" freespeed="22.2" capacity="2000.0" permlanes="1.0" modes="car,bus,tram,train" />
  </links>
</network>
