<?xml version="1.0" encoding="utf-8"?>
<!DOCTYPE population SYSTEM "http://www.matsim.org/files/dtd/population_v5.dtd">
<population>
 <person id="p_0">
  <plan selected="yes">
   <act type="home" x="466599.73455460084" y="5745151.5202814145" end_time="07:00:00" />
   <leg mode="pt"/>
   <act type="work" x="461876.53846739576" y="5742991.259522611" end_time="17:00:00" />
   <leg mode="pt"/>
   <act type="home" x="466599.73455460084" y="5745151.5202814145" />
  </plan>
 </person>
 <person id="p_1">
  <plan selected="yes">
   <act type="home" x="473929.5801209769" y="5750802.253083516" end_time="07:00:00" />
   <leg mode="pt"/>
   <act type="work" x="469462.3019571013" y="5741051.908199884" end_time="17:00:00" />
   <leg mode="pt"/>
   <act type="home" x="473929.5801209769" y="5750802.253083516" />
  </plan>
 </person>
 <person id="p_2">
  <plan selected="yes">
   <act type="home" x="472615.1241877565" y="5751623.108872409" end_time="07:00:00" />
   <leg mode="pt"/>
   <act type="work" x="465436.44586905465" y="5746801.5985777145" end_time="17:00:00" />
   <leg mode="pt"/>
   <act type="home" x="472615.1241877565" y="5751623.108872409" />
  </plan>
 </person>
 <person id="p_3">
  <plan selected="yes">
   <act type="home" x="462352.97559227364" y="5747003.685604617" end_time="07:00:00" />
   <leg mode="pt"/>
   <act type="work" x="473940.04426759644" y="5747933.893529902" end_time="17:00:00" />
   <leg mode="pt"/>
   <act type="home" x="462352.97559227364" y="5747003.685604617" />
  </plan>
 </person>
 <person id="p_4">
  <plan selected="yes">
   <act type="home" x="469759.62783058715" y="5748598.893937768" end_time="07:00:00" />
   <leg mode="pt"/>
   <act type="work" x="469249.3392226976" y="5749942.058278879" end_time="17:00:00" />
   <leg mode="pt"/>
   <act type="home" x="469759.62783058715" y="5748598.893937768" />
  </plan>
 </person>
 <person id="p_5">
  <plan selected="yes">
   <act type="home" x="472862.4549852533" y="5749343.288448019" end_time="07:00:00" />
   <leg mode="pt"/>
   <act type="work" x="468968.1380443745" y="5747397.659254491" end_time="17:00:00" />
   <leg mode="pt"/>
   <act type="home" x="472862.4549852533" y="5749343.288448019" />
  </plan>
 </person>
 <person id="p_6">
  <plan selected="yes">
   <act type="home" x="465425.31884779956" y="5745632.138804941" end_time="07:00:00" />
   <leg mode="pt"/>
   <act type="work" x="474102.4176470867" y="5745616.325619648" end_time="17:00:00" />
   <leg mode="pt"/>
   <act type="home" x="465425.31884779956" y="5745632.138804941" />
  </plan>
 </person>
 <person id="p_7">
  <plan selected="yes">
   <act type="home" x="468918.1292033522" y="5745817.1363401385" end_time="07:00:00" />
   <leg mode="pt"/>
   <act type="work" x="462431.96689317765" y="5742989.183947944" end_time="17:00:00" />
   <leg mode="pt"/>
   <act type="home" x="468918.1292033522" y="5745817.1363401385" />
  </plan>
 </person>
 <person id="p_8">
  <plan selected="yes">
   <act type="home" x="461663.15360757505" y="5747616.762781579" end_time="07:00:00" />
   <leg mode="pt"/>
   <act type="work" x="464204.84017857374" y="5743910.240209587" end_time="17:00:00" />
   <leg mode="pt"/>
   <act type="home" x="461663.15360757505" y="5747616.762781579" />
  </plan>
 </person>
 <person id="p_9">
  <plan selected="yes">
   <act type="home" x="461527.84674932586" y="5750149.4577558255" end_time="07:00:00" />
   <leg mode="pt"/>
   <act type="work" x="470264.4754214057" y="5751309.0786641585" end_time="17:00:00" />
   <leg mode="pt"/>
   <act type="home" x="461527.84674932586" y="5750149.4577558255" />
  </plan>
 </person>
 <person id="p_10">
  <plan selected="yes">
   <act type="home" x="471218.4159342003" y="5742204.013614348" end_time="07:00:00" />
   <leg mode="pt"/>
   <act type="work" x="467715.8810529368" y="5744079.59614304" end_time="17:00:00" />
   <leg mode="pt"/>
   <act type="home" x="471218.4159342003" y="5742204.013614348" />
  </plan>
 </person>
 <person id="p_11">
  <plan selected="yes">
   <act type="home" x="472409.32663042145" y="5744705.100673034" end_time="07:00:00" />
   <leg mode="pt"/>
   <act type="work" x="467193.0130795816" y="5744422.782666604" end_time="17:00:00" />
   <leg mode="pt"/>
   <act type="home" x="472409.32663042145" y="5744705.100673034" />
  </plan>
 </person>
 <person id="p_12">
  <plan selected="yes">
   <act type="home" x="467697.377135013" y="5745104.000802188" end_time="07:00:00" />
   <leg mode="pt"/>
   <act type="work" x="460143.3519640073" y="5744760.2193333525" end_time="17:00:00" />
   <leg mode="pt"/>
   <act type="home" x="467697.377135013" y="5745104.000802188" />
  </plan>
 </person>
 <person id="p_13">
  <plan selected="yes">
   <act type="home" x="460540.76712844503" y="5746264.115591862" end_time="07:00:00" />
   <leg mode="pt"/>
   <act type="work" x="472022.0162189596" y="5745324.629292712" end_time="17:00:00" />
   <leg mode="pt"/>
   <act type="home" x="460540.76712844503" y="5746264.115591862" />
  </plan>
 </person>
 <person id="p_14">
  <plan selected="yes">
   <act type="home" x="467723.7067114581" y="5740760.689369621" end_time="07:00:00" />
   <leg mode="pt"/>
   <act type="work" x="469440.5202832303" y="5745884.5715591805" end_time="17:00:00" />
   <leg mode="pt"/>
   <act type="home" x="467723.7067114581" y="5740760.689369621" />
  </plan>
 </person>
 <person id="p_15">
  <plan selected="yes">
   <act type="home" x="462904.8243022793" y="5751407.960216376" end_time="07:00:00" />
   <leg mode="pt"/>
   <act type="work" x="471770.45802424406" y="5741140.374949999" end_time="17:00:00" />
   <leg mode="pt"/>
   <act type="home" x="462904.8243022793" y="5751407.960216376" />
  </plan>
 </person>
 <person id="p_16">
  <plan selected="yes">
   <act type="home" x="469227.3371770042" y="5744301.1813100185" end_time="07:00:00" />
   <leg mode="pt"/>
   <act type="work" x="467694.0317177718" y="5742052.684244969" end_time="17:00:00" />
   <leg mode="pt"/>
   <act type="home" x="469227.3371770042" y="5744301.1813100185" />
  </plan>
 </person>
 <person id="p_17">
  <plan selected="yes">
   <act type="home" x="472311.03136888327" y="5749679.153092039" end_time="07:00:00" />
   <leg mode="pt"/>
   <act type="work" x="460074.18128878606" y="5743114.724769036" end_time="17:00:00" />
   <leg mode="pt"/>
   <act type="home" x="472311.03136888327" y="5749679.153092039" />
  </plan>
 </person>
 <person id="p_18">
  <plan selected="yes">
   <act type="home" x="467154.0849982478" y="5744887.447118738" end_time="07:00:00" />
   <leg mode="pt"/>
   <act type="work" x="462158.54155537015" y="5747596.590681421" end_time="17:00:00" />
   <leg mode="pt"/>
   <act type="home" x="467154.0849982478" y="5744887.447118738" />
  </plan>
 </person>
 <person id="p_19">
  <plan selected="yes">
   <act type="home" x="471472.65964054194" y="5742131.431110628" end_time="07:00:00" />
   <leg mode="pt"/>
   <act type="work" x="467877.3311995017" y="5748289.206569549" end_time="17:00:00" />
   <leg mode="pt"/>
   <act type="home" x="471472.65964054194" y="5742131.431110628" />
  </plan>
 </person>
 <person id="p_20">
  <plan selected="yes">
   <act type="home" x="466467.1188512945" y="5750227.945433156" end_time="07:00:00" />
   <leg mode="pt"/>
   <act type="work" x="463444.67952086375" y="5748381.940115138" end_time="17:00:00" />
   <leg mode="pt"/>
   <act type="home" x="466467.1188512945" y="5750227.945433156" />
  </plan>
 </person>
 <person id="p_21">
  <plan selected="yes">
   <act type="home" x="465107.9258676682" y="5740400.205717412" end_time="07:00:00" />
   <leg mode="pt"/>
   <act type="work" x="469101.0471221023" y="5745128.416732033" end_time="17:00:00" />
   <leg mode="pt"/>
   <act type="home" x="465107.9258676682" y="5740400.205717412" />
  </plan>
 </person>
 <person id="p_22">
  <plan selected="yes">
   <act type="home" x="467364.7558510159" y="5744294.297533041" end_time="07:00:00" />
   <leg mode="pt"/>
   <act type="work" x="470681.2615326891" y="5740952.761270996" end_time="17:00:00" />
   <leg mode="pt"/>
   <act type="home" x="467364.7558510159" y="5744294.297533041" />
  </plan>
 </person>
 <person id="p_23">
  <plan selected="yes">
   <act type="home" x="463946.5474594297" y="5745493.717116756" end_time="07:00:00" />
   <leg mode="pt"/>
   <act type="work" x="465614.11526200915" y="5747208.597683944" end_time="17:00:00" />
   <leg mode="pt"/>
   <act type="home" x="463946.5474594297" y="5745493.717116756" />
  </plan>
 </person>
 <person id="p_24">
  <plan selected="yes">
   <act type="home" x="465418.5165708176" y="5744969.299498034" end_time="07:00:00" />
   <leg mode="pt"/>
   <act type="work" x="462083.5401112697" y="5744860.428993796" end_time="17:00:00" />
   <leg mode="pt"/>
   <act type="home" x="465418.5165708176" y="5744969.299498034" />
  </plan>
 </person>
 <person id="p_25">
  <plan selected="yes">
   <act type="home" x="468378.80510231043" y="5744555.171947562" end_time="07:00:00" />
   <leg mode="pt"/>
   <act type="work" x="473370.3565070933" y="5750969.636700651" end_time="17:00:00" />
   <leg mode="pt"/>
   <act type="home" x="468378.80510231043" y="5744555.171947562" />
  </plan>
 </person>
 <person id="p_26">
  <plan selected="yes">
   <act type="home" x="468668.5737209576" y="5748553.575896478" end_time="07:00:00" />
   <leg mode="pt"/>
   <act type="work" x="463546.55179633066" y="5744273.638678355" end_time="17:00:00" />
   <leg mode="pt"/>
   <act type="home" x="468668.5737209576" y="5748553.575896478" />
  </plan>
 </person>
 <person id="p_27">
  <plan selected="yes">
   <act type="home" x="466689.9667123122" y="5740343.924253939" end_time="07:00:00" />
   <leg mode="pt"/>
   <act type="work" x="461819.5257486412" y="5751286.800084822" end_time="17:00:00" />
   <leg mode="pt"/>
   <act type="home" x="466689.9667123122" y="5740343.924253939" />
  </plan>
 </person>
 <person id="p_28">
  <plan selected="yes">
   <act type="home" x="460744.6431702426" y="5741358.217655427" end_time="07:00:00" />
   <leg mode="pt"/>
   <act type="work" x="460038.8131837511" y="5744747.759520826" end_time="17:00:00" />
   <leg mode="pt"/>
   <act type="home" x="460744.6431702426" y="5741358.217655427" />
  </plan>
 </person>
 <person id="p_29">
  <plan selected="yes">
   <act type="home" x="472166.5059886006" y="5749940.454940401" end_time="07:00:00" />
   <leg mode="pt"/>
   <act type="work" x="470980.69365521416" y="5746282.94242114" end_time="17:00:00" />
   <leg mode="pt"/>
   <act type="home" x="472166.5059886006" y="5749940.454940401" />
  </plan>
 </person>
 <person id="p_30">
  <plan selected="yes">
   <act type="home" x="462082.92389518226" y="5740124.11830017" end_time="07:00:00" />
   <leg mode="pt"/>
   <act type="work" x="462724.8965128595" y="5748239.126554829" end_time="17:00:00" />
   <leg mode="pt"/>
   <act type="home" x="462082.92389518226" y="5740124.11830017" />
  </plan>
 </person>
 <person id="p_31">
  <plan selected="yes">
   <act type="home" x="474347.6549457985" y="5746797.183397448" end_time="07:00:00" />
   <leg mode="pt"/>
   <act type="work" x="460209.3724826445" y="5750875.30622855" end_time="17:00:00" />
   <leg mode="pt"/>
   <act type="home" x="474347.6549457985" y="5746797.183397448" />
  </plan>
 </person>
 <person id="p_32">
  <plan selected="yes">
   <act type="home" x="460387.7905303996" y="5741137.370670176" end_time="07:00:00" />
   <leg mode="pt"/>
   <act type="work" x="465604.59151214815" y="5745866.833724207" end_time="17:00:00" />
   <leg mode="pt"/>
   <act type="home" x="460387.7905303996" y="5741137.370670176" />
  </plan>
 </person>
 <person id="p_33">
  <plan selected="yes">
   <act type="home" x="463901.4489661772" y="5741861.221730563" end_time="07:00:00" />
   <leg mode="pt"/>
   <act type="work" x="470415.2516763068" y="5742932.919240314" end_time="17:00:00" />
   <leg mode="pt"/>
   <act type="home" x="463901.4489661772" y="5741861.221730563" />
  </plan>
 </person>
 <person id="p_34">
  <plan selected="yes">
   <act type="home" x="460575.90369572473" y="5745130.1729077445" end_time="07:00:00" />
   <leg mode="pt"/>
   <act type="work" x="472195.4961752922" y="5743322.015079435" end_time="17:00:00" />
   <leg mode="pt"/>
   <act type="home" x="460575.90369572473" y="5745130.1729077445" />
  </plan>
 </person>
 <person id="p_35">
  <plan selected="yes">
   <act type="home" x="471420.50188441307" y="5742233.696877657" end_time="07:00:00" />
   <leg mode="pt"/>
   <act type="work" x="466028.24380673346" y="5745555.650894863" end_time="17:00:00" />
   <leg mode="pt"/>
   <act type="home" x="471420.50188441307" y="5742233.696877657" />
  </plan>
 </person>
 <person id="p_36">
  <plan selected="yes">
   <act type="home" x="462855.9229652177" y="5751483.960484366" end_time="07:00:00" />
   <leg mode="pt"/>
   <act type="work" x="464461.9438707305" y="5742253.425669269" end_time="17:00:00" />
   <leg mode="pt"/>
   <act type="home" x="462855.9229652177" y="5751483.960484366" />
  </plan>
 </person>
 <person id="p_37">
  <plan selected="yes">
   <act type="home" x="474005.23973910336" y="5750446.932064982" end_time="07:00:00" />
   <leg mode="pt"/>
   <act type="work" x="467023.03131138755" y="5741957.074034524" end_time="17:00:00" />
   <leg mode="pt"/>
   <act type="home" x="474005.23973910336" y="5750446.932064982" />
  </plan>
 </person>
 <person id="p_38">
  <plan selected="yes">
   <act type="home" x="468342.44025637826" y="5748199.966645727" end_time="07:00:00" />
   <leg mode="pt"/>
   <act type="work" x="473886.48763261264" y="5742261.176969216" end_time="17:00:00" />
   <leg mode="pt"/>
   <act type="home" x="468342.44025637826" y="5748199.966645727" />
  </plan>
 </person>
 <person id="p_39">
  <plan selected="yes">
   <act type="home" x="472618.2426163319" y="5748140.548915524" end_time="07:00:00" />
   <leg mode="pt"/>
   <act type="work" x="469767.7527406009" y="5749372.981574373" end_time="17:00:00" />
   <leg mode="pt"/>
   <act type="home" x="472618.2426163319" y="5748140.548915524" />
  </plan>
 </person>
 <person id="p_40">
  <plan selected="yes">
   <act type="home" x="461956.6610918744" y="5742501.181857808" end_time="07:00:00" />
   <leg mode="pt"/>
   <act type="work" x="467154.6196077692" y="5750528.570352868" end_time="17:00:00" />
   <leg mode="pt"/>
   <act type="home" x="461956.6610918744" y="5742501.181857808" />
  </plan>
 </person>
 <person id="p_41">
  <plan selected="yes">
   <act type="home" x="470120.37277331477" y="5747996.501217993" end_time="07:00:00" />
   <leg mode="pt"/>
   <act type="work" x="469466.720916361" y="5743694.172512863" end_time="17:00:00" />
   <leg mode="pt"/>
   <act type="home" x="470120.37277331477" y="5747996.501217993" />
  </plan>
 </person>
 <person id="p_42">
  <plan selected="yes">
   <act type="home" x="469216.44263757975" y="5746166.870667361" end_time="07:00:00" />
   <leg mode="pt"/>
   <act type="work" x="468753.65153912676" y="5744321.937141432" end_time="17:00:00" />
   <leg mode="pt"/>
   <act type="home" x="469216.44263757975" y="5746166.870667361" />
  </plan>
 </person>
 <person id="p_43">
  <plan selected="yes">
   <act type="home" x="465249.80410167645" y="5748371.110634932" end_time="07:00:00" />
   <leg mode="pt"/>
   <act type="work" x="472750.0930629007" y="5744841.982944148" end_time="17:00:00" />
   <leg mode="pt"/>
   <act type="home" x="465249.80410167645" y="5748371.110634932" />
  </plan>
 </person>
 <person id="p_44">
  <plan selected="yes">
   <act type="home" x="468137.81226159865" y="5745772.825960529" end_time="07:00:00" />
   <leg mode="pt"/>
   <act type="work" x="465372.308752241" y="5746336.891425629" end_time="17:00:00" />
   <leg mode="pt"/>
   <act type="home" x="468137.81226159865" y="5745772.825960529" />
  </plan>
 </person>
 <person id="p_45">
  <plan selected="yes">
   <act type="home" x="466805.5069800338" y="5747913.128070575" end_time="07:00:00" />
   <leg mode="pt"/>
   <act type="work" x="474966.7781235035" y="5743793.891071961" end_time="17:00:00" />
   <leg mode="pt"/>
   <act type="home" x="466805.5069800338" y="5747913.128070575" />
  </plan>
 </person>
 <person id="p_46">
  <plan selected="yes">
   <act type="home" x="469021.4654598313" y="5747771.980303127" end_time="07:00:00" />
   <leg mode="pt"/>
   <act type="work" x="467307.92983388784" y="5748246.851707226" end_time="17:00:00" />
   <leg mode="pt"/>
   <act type="home" x="469021.4654598313" y="5747771.980303127" />
  </plan>
 </person>
 <person id="p_47">
  <plan selected="yes">
   <act type="home" x="470932.6526958497" y="5749473.11316638" end_time="07:00:00" />
   <leg mode="pt"/>
   <act type="work" x="470261.58003302896" y="5746366.676733365" end_time="17:00:00" />
   <leg mode="pt"/>
   <act type="home" x="470932.6526958497" y="5749473.11316638" />
  </plan>
 </person>
 <person id="p_48">
  <plan selected="yes">
   <act type="home" x="463792.07484970056" y="5750995.783974776" end_time="07:00:00" />
   <leg mode="pt"/>
   <act type="work" x="467734.30426753225" y="5750791.303823957" end_time="17:00:00" />
   <leg mode="pt"/>
   <act type="home" x="463792.07484970056" y="5750995.783974776" />
  </plan>
 </person>
 <person id="p_49">
  <plan selected="yes">
   <act type="home" x="473932.6474960886" y="5744570.383477677" end_time="07:00:00" />
   <leg mode="pt"/>
   <act type="work" x="474862.82751264924" y="5751653.39507387" end_time="17:00:00" />
   <leg mode="pt"/>
   <act type="home" x="473932.6474960886" y="5744570.383477677" />
  </plan>
 </person>
 <person id="p_50">
  <plan selected="yes">
   <act type="home" x="461795.7517644185" y="5743409.595550496" end_time="07:00:00" />
   <leg mode="pt"/>
   <act type="work" x="465723.6006965411" y="5747097.454713886" end_time="17:00:00" />
   <leg mode="pt"/>
   <act type="home" x="461795.7517644185" y="5743409.595550496" />
  </plan>
 </person>
 <person id="p_51">
  <plan selected="yes">
   <act type="home" x="465906.4441459815" y="5751781.419937508" end_time="07:00:00" />
   <leg mode="pt"/>
   <act type="work" x="467750.52785447804" y="5742962.636884247" end_time="17:00:00" />
   <leg mode="pt"/>
   <act type="home" x="465906.4441459815" y="5751781.419937508" />
  </plan>
 </person>
 <person id="p_52">
  <plan selected="yes">
   <act type="home" x="472870.15038808575" y="5741281.515157561" end_time="07:00:00" />
   <leg mode="pt"/>
   <act type="work" x="464703.8640376747" y="5745264.819661526" end_time="17:00:00" />
   <leg mode="pt"/>
   <act type="home" x="472870.15038808575" y="5741281.515157561" />
  </plan>
 </person>
 <person id="p_53">
  <plan selected="yes">
   <act type="home" x="467411.7137195611" y="5740200.834830454" end_time="07:00:00" />
   <leg mode="pt"/>
   <act type="work" x="470016.2877320201" y="5751311.842914675" end_time="17:00:00" />
   <leg mode="pt"/>
   <act type="home" x="467411.7137195611" y="5740200.834830454" />
  </plan>
 </person>
 <person id="p_54">
  <plan selected="yes">
   <act type="home" x="467275.7734308077" y="5740388.378648606" end_time="07:00:00" />
   <leg mode="pt"/>
   <act type="work" x="461785.6377896968" y="5751898.553631155" end_time="17:00:00" />
   <leg mode="pt"/>
   <act type="home" x="467275.7734308077" y="5740388.378648606" />
  </plan>
 </person>
 <person id="p_55">
  <plan selected="yes">
   <act type="home" x="465457.42751917074" y="5741111.402675504" end_time="07:00:00" />
   <leg mode="pt"/>
   <act type="work" x="474798.1538648052" y="5750689.877291646" end_time="17:00:00" />
   <leg mode="pt"/>
   <act type="home" x="465457.42751917074" y="5741111.402675504" />
  </plan>
 </person>
 <person id="p_56">
  <plan selected="yes">
   <act type="home" x="464955.88988052425" y="5748815.656379166" end_time="07:00:00" />
   <leg mode="pt"/>
   <act type="work" x="473952.27159127756" y="5750825.289372273" end_time="17:00:00" />
   <leg mode="pt"/>
   <act type="home" x="464955.88988052425" y="5748815.656379166" />
  </plan>
 </person>
 <person id="p_57">
  <plan selected="yes">
   <act type="home" x="473449.1357165133" y="5751397.677066233" end_time="07:00:00" />
   <leg mode="pt"/>
   <act type="work" x="473602.193187232" y="5751712.59592703" end_time="17:00:00" />
   <leg mode="pt"/>
   <act type="home" x="473449.1357165133" y="5751397.677066233" />
  </plan>
 </person>
 <person id="p_58">
  <plan selected="yes">
   <act type="home" x="469570.0229041518" y="5743857.979529576" end_time="07:00:00" />
   <leg mode="pt"/>
   <act type="work" x="462079.94307166367" y="5748825.582150808" end_time="17:00:00" />
   <leg mode="pt"/>
   <act type="home" x="469570.0229041518" y="5743857.979529576" />
  </plan>
 </person>
 <person id="p_59">
  <plan selected="yes">
   <act type="home" x="472134.18374528096" y="5745819.890243016" end_time="07:00:00" />
   <leg mode="pt"/>
   <act type="work" x="469121.2336264889" y="5744301.213478536" end_time="17:00:00" />
   <leg mode="pt"/>
   <act type="home" x="472134.18374528096" y="5745819.890243016" />
  </plan>
 </person>
 <person id="p_60">
  <plan selected="yes">
   <act type="home" x="467570.7141330582" y="5743748.477655943" end_time="07:00:00" />
   <leg mode="pt"/>
   <act type="work" x="467445.47574814054" y="5751110.714223017" end_time="17:00:00" />
   <leg mode="pt"/>
   <act type="home" x="467570.7141330582" y="5743748.477655943" />
  </plan>
 </person>
 <person id="p_61">
  <plan selected="yes">
   <act type="home" x="466122.0283293921" y="5750800.597474653" end_time="07:00:00" />
   <leg mode="pt"/>
   <act type="work" x="471377.9181432614" y="5744864.609241222" end_time="17:00:00" />
   <leg mode="pt"/>
   <act type="home" x="466122.0283293921" y="5750800.597474653" />
  </plan>
 </person>
 <person id="p_62">
  <plan selected="yes">
   <act type="home" x="462644.5065565727" y="5749566.46008154" end_time="07:00:00" />
   <leg mode="pt"/>
   <act type="work" x="470021.40363318694" y="5748803.569673742" end_time="17:00:00" />
   <leg mode="pt"/>
   <act type="home" x="462644.5065565727" y="5749566.46008154" />
  </plan>
 </person>
 <person id="p_63">
  <plan selected="yes">
   <act type="home" x="469378.93286922364" y="5740137.363145698" end_time="07:00:00" />
   <leg mode="pt"/>
   <act type="work" x="462863.92631437187" y="5751233.0253117345" end_time="17:00:00" />
   <leg mode="pt"/>
   <act type="home" x="469378.93286922364" y="5740137.363145698" />
  </plan>
 </person>
 <person id="p_64">
  <plan selected="yes">
   <act type="home" x="470871.99673344544" y="5745028.321019791" end_time="07:00:00" />
   <leg mode="pt"/>
   <act type="work" x="471740.98771620565" y="5742766.181441912" end_time="17:00:00" />
   <leg mode="pt"/>
   <act type="home" x="470871.99673344544" y="5745028.321019791" />
  </plan>
 </person>
 <person id="p_65">
  <plan selected="yes">
   <act type="home" x="465061.10313470225" y="5751316.443004146" end_time="07:00:00" />
   <leg mode="pt"/>
   <act type="work" x="470350.10410578345" y="5747902.759888935" end_time="17:00:00" />
   <leg mode="pt"/>
   <act type="home" x="465061.10313470225" y="5751316.443004146" />
  </plan>
 </person>
 <person id="p_66">
  <plan selected="yes">
   <act type="home" x="465346.24593984755" y="5751458.968489482" end_time="07:00:00" />
   <leg mode="pt"/>
   <act type="work" x="474197.63481759664" y="5744122.612320957" end_time="17:00:00" />
   <leg mode="pt"/>
   <act type="home" x="465346.24593984755" y="5751458.968489482" />
  </plan>
 </person>
 <person id="p_67">
  <plan selected="yes">
   <act type="home" x="462112.6696147127" y="5750119.987130482" end_time="07:00:00" />
   <leg mode="pt"/>
   <act type="work" x="474673.7302068066" y="5747337.928860259" end_time="17:00:00" />
   <leg mode="pt"/>
   <act type="home" x="462112.6696147127" y="5750119.987130482" />
  </plan>
 </person>
 <person id="p_68">
  <plan selected="yes">
   <act type="home" x="463417.5090125116" y="5744233.311053166" end_time="07:00:00" />
   <leg mode="pt"/>
   <act type="work" x="467278.2800344475" y="5740530.626132637" end_time="17:00:00" />
   <leg mode="pt"/>
   <act type="home" x="463417.5090125116" y="5744233.311053166" />
  </plan>
 </person>
 <person id="p_69">
  <plan selected="yes">
   <act type="home" x="471652.00881671265" y="5740386.216276039" end_time="07:00:00" />
   <leg mode="pt"/>
   <act type="work" x="462887.5043426024" y="5743578.45318554" end_time="17:00:00" />
   <leg mode="pt"/>
   <act type="home" x="471652.00881671265" y="5740386.216276039" />
  </plan>
 </person>
 <person id="p_70">
  <plan selected="yes">
   <act type="home" x="461987.5692688564" y="5741549.121874543" end_time="07:00:00" />
   <leg mode="pt"/>
   <act type="work" x="466322.1730707935" y="5746075.000276634" end_time="17:00:00" />
   <leg mode="pt"/>
   <act type="home" x="461987.5692688564" y="5741549.121874543" />
  </plan>
 </person>
 <person id="p_71">
  <plan selected="yes">
   <act type="home" x="460314.00315766956" y="5745599.639767264" end_time="07:00:00" />
   <leg mode="pt"/>
   <act type="work" x="468555.5941150845" y="5749070.503405201" end_time="17:00:00" />
   <leg mode="pt"/>
   <act type="home" x="460314.00315766956" y="5745599.639767264" />
  </plan>
 </person>
 <person id="p_72">
  <plan selected="yes">
   <act type="home" x="467258.51546812494" y="5749921.277588579" end_time="07:00:00" />
   <leg mode="pt"/>
   <act type="work" x="474512.9017504506" y="5750000.743199761" end_time="17:00:00" />
   <leg mode="pt"/>
   <act type="home" x="467258.51546812494" y="5749921.277588579" />
  </plan>
 </person>
 <person id="p_73">
  <plan selected="yes">
   <act type="home" x="460897.8383250505" y="5744956.627120524" end_time="07:00:00" />
   <leg mode="pt"/>
   <act type="work" x="471639.4231560117" y="5741296.973301938" end_time="17:00:00" />
   <leg mode="pt"/>
   <act type="home" x="460897.8383250505" y="5744956.627120524" />
  </plan>
 </person>
 <person id="p_74">
  <plan selected="yes">
   <act type="home" x="465246.2026263855" y="5749680.445057248" end_time="07:00:00" />
   <leg mode="pt"/>
   <act type="work" x="471388.12880775664" y="5741677.398880881" end_time="17:00:00" />
   <leg mode="pt"/>
   <act type="home" x="465246.2026263855" y="5749680.445057248" />
  </plan>
 </person>
 <person id="p_75">
  <plan selected="yes">
   <act type="home" x="468402.6489476891" y="5750248.194368349" end_time="07:00:00" />
   <leg mode="pt"/>
   <act type="work" x="473060.45947654685" y="5746625.569382943" end_time="17:00:00" />
   <leg mode="pt"/>
   <act type="home" x="468402.6489476891" y="5750248.194368349" />
  </plan>
 </person>
 <person id="p_76">
  <plan selected="yes">
   <act type="home" x="468286.31341939076" y="5740313.592335386" end_time="07:00:00" />
   <leg mode="pt"/>
   <act type="work" x="474246.335228679" y="5750441.863881681" end_time="17:00:00" />
   <leg mode="pt"/>
   <act type="home" x="468286.31341939076" y="5740313.592335386" />
  </plan>
 </person>
 <person id="p_77">
  <plan selected="yes">
   <act type="home" x="474295.06408412947" y="5742060.688467907" end_time="07:00:00" />
   <leg mode="pt"/>
   <act type="work" x="461602.3703117526" y="5746668.895515236" end_time="17:00:00" />
   <leg mode="pt"/>
   <act type="home" x="474295.06408412947" y="5742060.688467907" />
  </plan>
 </person>
 <person id="p_78">
  <plan selected="yes">
   <act type="home" x="464966.02077159384" y="5751339.278584843" end_time="07:00:00" />
   <leg mode="pt"/>
   <act type="work" x="468033.34956894146" y="5746171.823220003" end_time="17:00:00" />
   <leg mode="pt"/>
   <act type="home" x="464966.02077159384" y="5751339.278584843" />
  </plan>
 </person>
 <person id="p_79">
  <plan selected="yes">
   <act type="home" x="471352.586584099" y="5744859.298411943" end_time="07:00:00" />
   <leg mode="pt"/>
   <act type="work" x="464660.759860491" y="5749411.388160547" end_time="17:00:00" />
   <leg mode="pt"/>
   <act type="home" x="471352.586584099" y="5744859.298411943" />
  </plan>
 </person>
 <person id="p_80">
  <plan selected="yes">
   <act type="home" x="469682.8727148869" y="5750890.3990036575" end_time="07:00:00" />
   <leg mode="pt"/>
   <act type="work" x="470920.65236836125" y="5748086.752711637" end_time="17:00:00" />
   <leg mode="pt"/>
   <act type="home" x="469682.8727148869" y="5750890.3990036575" />
  </plan>
 </person>
 <person id="p_81">
  <plan selected="yes">
   <act type="home" x="461301.3534051723" y="5745832.920313041" end_time="07:00:00" />
   <leg mode="pt"/>
   <act type="work" x="464755.7817679526" y="5744067.162344017" end_time="17:00:00" />
   <leg mode="pt"/>
   <act type="home" x="461301.3534051723" y="5745832.920313041" />
  </plan>
 </person>
 <person id="p_82">
  <plan selected="yes">
   <act type="home" x="463446.8376312064" y="5744802.868338566" end_time="07:00:00" />
   <leg mode="pt"/>
   <act type="work" x="462766.3237557299" y="5751037.705573338" end_time="17:00:00" />
   <leg mode="pt"/>
   <act type="home" x="463446.8376312064" y="5744802.868338566" />
  </plan>
 </person>
 <person id="p_83">
  <plan selected="yes">
   <act type="home" x="469367.555229604" y="5750100.635672837" end_time="07:00:00" />
   <leg mode="pt"/>
   <act type="work" x="462097.16357151384" y="5749808.731925807" end_time="17:00:00" />
   <leg mode="pt"/>
   <act type="home" x="469367.555229604" y="5750100.635672837" />
  </plan>
 </person>
 <person id="p_84">
  <plan selected="yes">
   <act type="home" x="460457.9692953628" y="5747644.097732253" end_time="07:00:00" />
   <leg mode="pt"/>
   <act type="work" x="466841.21002480586" y="5751383.706341509" end_time="17:00:00" />
   <leg mode="pt"/>
   <act type="home" x="460457.9692953628" y="5747644.097732253" />
  </plan>
 </person>
 <person id="p_85">
  <plan selected="yes">
   <act type="home" x="468724.35575137683" y="5741042.355327567" end_time="07:00:00" />
   <leg mode="pt"/>
   <act type="work" x="472744.3228605652" y="5749901.933210194" end_time="17:00:00" />
   <leg mode="pt"/>
   <act type="home" x="468724.35575137683" y="5741042.355327567" />
  </plan>
 </person>